<?xml version="1.0" encoding="UTF-8"?>

<!-- generated on Tue Feb  4 16:16:54 2020 by Eclipse SUMO netconvert Version v1_4_0+0842-bd820f4cc7
<configuration xmlns:xsi="http://www.w3.org/2001/XMLSchema-instance" xsi:noNamespaceSchemaLocation="http://sumo.dlr.de/xsd/netconvertConfiguration.xsd">

    <input>
        <opendrive-files value="/home/stephan/catkin_ws/src/adore_if_ros_demos/tracks/basic_test_track.xodr"/>
    </input>

    <output>
        <output-file value="/home/stephan/catkin_ws/basic_test_track.net.xml"/>
    </output>

    <processing>
        <geometry.max-grade.fix value="false"/>
        <offset.disable-normalization value="true"/>
    </processing>

    <tls_building>
        <tls.left-green.time value="0"/>
    </tls_building>

    <junctions>
        <rectangular-lane-cut value="true"/>
    </junctions>

    <report>
        <aggregate-warnings value="5"/>
    </report>

</configuration>
-->

<net version="1.3" junctionCornerDetail="5" rectangularLaneCut="true" limitTurnSpeed="5.50" xmlns:xsi="http://www.w3.org/2001/XMLSchema-instance" xsi:noNamespaceSchemaLocation="http://sumo.dlr.de/xsd/net_file.xsd">

    <location netOffset="0.00,0.00" convBoundary="-233.19,-526.39,2196.81,1283.61" origBoundary="-233.19,-526.39,2196.81,1283.61" projParameter="!"/>

    <type id="bidirectional" priority="1" speed="1.39" disallow="pedestrian tram rail_urban rail rail_electric rail_fast ship" width="3.65"/>
    <type id="border" priority="0" speed="1.39" disallow="all" discard="1" width="0.10"/>
    <type id="driving" priority="1" speed="13.89" disallow="pedestrian tram rail_urban rail rail_electric rail_fast ship" width="3.65"/>
    <type id="entry" priority="1" speed="22.22" disallow="pedestrian tram rail_urban rail rail_electric rail_fast ship" width="3.65"/>
    <type id="exit" priority="1" speed="22.22" disallow="pedestrian tram rail_urban rail rail_electric rail_fast ship" width="3.65"/>
    <type id="median" priority="0" speed="1.39" disallow="all" discard="1" width="0.10"/>
    <type id="mwyEntry" priority="1" speed="22.22" allow="private emergency authority army vip passenger hov taxi bus coach delivery truck trailer motorcycle evehicle custom1 custom2" width="3.65"/>
    <type id="mwyExit" priority="1" speed="22.22" allow="private emergency authority army vip passenger hov taxi bus coach delivery truck trailer motorcycle evehicle custom1 custom2" width="3.65"/>
    <type id="none" priority="0" speed="1.39" disallow="all" discard="1" width="1.00"/>
    <type id="offRamp" priority="1" speed="22.22" allow="private emergency authority army vip passenger hov taxi bus coach delivery truck trailer motorcycle evehicle custom1 custom2" width="3.65"/>
    <type id="onRamp" priority="1" speed="22.22" allow="private emergency authority army vip passenger hov taxi bus coach delivery truck trailer motorcycle evehicle custom1 custom2" width="3.65"/>
    <type id="parking" priority="1" speed="1.39" disallow="pedestrian tram rail_urban rail rail_electric rail_fast ship" width="2.50"/>
    <type id="rail" priority="3" speed="33.33" allow="rail_urban rail rail_electric rail_fast" width="3.65"/>
    <type id="restricted" priority="0" speed="13.89" disallow="all" width="3.65"/>
    <type id="roadWorks" priority="0" speed="1.39" allow="authority" width="3.65"/>
    <type id="shoulder" priority="0" speed="1.39" disallow="all" discard="1" width="1.00"/>
    <type id="special1" priority="1" speed="22.22" allow="custom1" discard="1" width="3.65"/>
    <type id="special2" priority="1" speed="22.22" allow="custom2" discard="1" width="3.65"/>
    <type id="special3" priority="1" speed="22.22" allow="custom1 custom2" discard="1" width="3.65"/>
    <type id="stop" priority="1" speed="13.89" disallow="pedestrian tram rail_urban rail rail_electric rail_fast ship" width="3.65"/>
    <type id="tram" priority="2" speed="13.89" allow="tram" width="3.65"/>

    <edge id=":10_0" function="internal">
        <lane id=":10_0_0" index="0" disallow="pedestrian tram rail_urban rail rail_electric rail_fast ship" speed="8.18" length="14.72" width="3.75" shape="674.93,574.61 674.36,570.62 672.65,567.77 669.80,566.06 665.81,565.49"/>
    </edge>
    <edge id=":10_1" function="internal">
        <lane id=":10_1_0" index="0" disallow="pedestrian tram rail_urban rail rail_electric rail_fast ship" speed="13.89" length="22.00" width="3.75" shape="674.93,574.61 674.93,552.61"/>
    </edge>
    <edge id=":10_2" function="internal">
        <lane id=":10_2_0" index="0" disallow="pedestrian tram rail_urban rail rail_electric rail_fast ship" speed="9.61" length="7.77" width="3.75" shape="674.93,574.61 675.74,568.98 676.81,567.19"/>
    </edge>
    <edge id=":10_12" function="internal">
        <lane id=":10_12_0" index="0" disallow="pedestrian tram rail_urban rail rail_electric rail_fast ship" speed="9.61" length="12.99" width="3.75" shape="676.81,567.19 678.15,564.95 682.17,562.54 687.81,561.74"/>
    </edge>
    <edge id=":10_3" function="internal">
        <lane id=":10_3_0" index="0" disallow="pedestrian tram rail_urban rail rail_electric rail_fast ship" speed="8.18" length="14.72" width="3.75" shape="687.81,565.49 683.81,566.06 680.96,567.77 679.25,570.62 678.68,574.61"/>
    </edge>
    <edge id=":10_4" function="internal">
        <lane id=":10_4_0" index="0" disallow="pedestrian tram rail_urban rail rail_electric rail_fast ship" speed="13.89" length="22.00" width="3.75" shape="687.81,565.49 665.81,565.49"/>
    </edge>
    <edge id=":10_5" function="internal">
        <lane id=":10_5_0" index="0" disallow="pedestrian tram rail_urban rail rail_electric rail_fast ship" speed="9.61" length="7.77" width="3.75" shape="687.81,565.49 682.17,564.68 680.39,563.61"/>
    </edge>
    <edge id=":10_13" function="internal">
        <lane id=":10_13_0" index="0" disallow="pedestrian tram rail_urban rail rail_electric rail_fast ship" speed="9.61" length="12.99" width="3.75" shape="680.39,563.61 678.15,562.27 675.74,558.24 674.93,552.61"/>
    </edge>
    <edge id=":10_6" function="internal">
        <lane id=":10_6_0" index="0" disallow="pedestrian tram rail_urban rail rail_electric rail_fast ship" speed="8.18" length="14.72" width="3.75" shape="678.68,552.61 679.25,556.60 680.96,559.45 683.81,561.17 687.81,561.74"/>
    </edge>
    <edge id=":10_7" function="internal">
        <lane id=":10_7_0" index="0" disallow="pedestrian tram rail_urban rail rail_electric rail_fast ship" speed="13.89" length="22.00" width="3.75" shape="678.68,552.61 678.68,574.61"/>
    </edge>
    <edge id=":10_8" function="internal">
        <lane id=":10_8_0" index="0" disallow="pedestrian tram rail_urban rail rail_electric rail_fast ship" speed="9.61" length="7.77" width="3.75" shape="678.68,552.61 677.88,558.24 676.81,560.03"/>
    </edge>
    <edge id=":10_14" function="internal">
        <lane id=":10_14_0" index="0" disallow="pedestrian tram rail_urban rail rail_electric rail_fast ship" speed="9.61" length="12.99" width="3.75" shape="676.81,560.03 675.46,562.27 671.44,564.68 665.81,565.49"/>
    </edge>
    <edge id=":10_9" function="internal">
        <lane id=":10_9_0" index="0" disallow="pedestrian tram rail_urban rail rail_electric rail_fast ship" speed="8.18" length="14.72" width="3.75" shape="665.81,561.74 669.80,561.17 672.65,559.45 674.36,556.60 674.93,552.61"/>
    </edge>
    <edge id=":10_10" function="internal">
        <lane id=":10_10_0" index="0" disallow="pedestrian tram rail_urban rail rail_electric rail_fast ship" speed="13.89" length="22.00" width="3.75" shape="665.81,561.74 687.81,561.74"/>
    </edge>
    <edge id=":10_11" function="internal">
        <lane id=":10_11_0" index="0" disallow="pedestrian tram rail_urban rail rail_electric rail_fast ship" speed="9.61" length="7.77" width="3.75" shape="665.81,561.74 671.44,562.54 673.22,563.61"/>
    </edge>
    <edge id=":10_15" function="internal">
        <lane id=":10_15_0" index="0" disallow="pedestrian tram rail_urban rail rail_electric rail_fast ship" speed="9.61" length="12.99" width="3.75" shape="673.22,563.61 675.46,564.95 677.88,568.98 678.68,574.61"/>
    </edge>
    <edge id=":112.108_0" function="internal">
        <lane id=":112.108_0_0" index="0" disallow="pedestrian tram rail_urban rail rail_electric rail_fast ship" speed="13.89" length="0.10" width="3.75" shape="-235.07,313.61 -235.07,313.61"/>
    </edge>
    <edge id=":112.108_1" function="internal">
        <lane id=":112.108_1_0" index="0" disallow="pedestrian tram rail_urban rail rail_electric rail_fast ship" speed="13.89" length="0.10" width="3.75" shape="-231.32,313.61 -231.32,313.61"/>
    </edge>
    <edge id=":112.111_0" function="internal">
        <lane id=":112.111_0_0" index="0" disallow="pedestrian tram rail_urban rail rail_electric rail_fast ship" speed="13.89" length="0.10" width="3.75" shape="-235.07,513.61 -235.07,513.61"/>
    </edge>
    <edge id=":112.111_1" function="internal">
        <lane id=":112.111_1_0" index="0" disallow="pedestrian tram rail_urban rail rail_electric rail_fast ship" speed="13.89" length="0.10" width="3.75" shape="-231.32,513.61 -231.32,513.61"/>
    </edge>
    <edge id=":12_0" function="internal">
        <lane id=":12_0_0" index="0" disallow="pedestrian tram rail_urban rail rail_electric rail_fast ship" speed="8.18" length="14.72" width="3.75" shape="674.93,-245.39 674.36,-249.38 672.65,-252.23 669.80,-253.94 665.81,-254.51"/>
    </edge>
    <edge id=":12_1" function="internal">
        <lane id=":12_1_0" index="0" disallow="pedestrian tram rail_urban rail rail_electric rail_fast ship" speed="13.89" length="22.00" width="3.75" shape="674.93,-245.39 674.93,-267.39"/>
    </edge>
    <edge id=":12_2" function="internal">
        <lane id=":12_2_0" index="0" disallow="pedestrian tram rail_urban rail rail_electric rail_fast ship" speed="9.61" length="7.77" width="3.75" shape="674.93,-245.39 675.74,-251.02 676.81,-252.81"/>
    </edge>
    <edge id=":12_12" function="internal">
        <lane id=":12_12_0" index="0" disallow="pedestrian tram rail_urban rail rail_electric rail_fast ship" speed="9.61" length="12.99" width="3.75" shape="676.81,-252.81 678.15,-255.05 682.17,-257.46 687.81,-258.26"/>
    </edge>
    <edge id=":12_3" function="internal">
        <lane id=":12_3_0" index="0" disallow="pedestrian tram rail_urban rail rail_electric rail_fast ship" speed="8.18" length="14.72" width="3.75" shape="687.81,-254.51 683.81,-253.94 680.96,-252.23 679.25,-249.38 678.68,-245.39"/>
    </edge>
    <edge id=":12_4" function="internal">
        <lane id=":12_4_0" index="0" disallow="pedestrian tram rail_urban rail rail_electric rail_fast ship" speed="13.89" length="22.00" width="3.75" shape="687.81,-254.51 665.81,-254.51"/>
    </edge>
    <edge id=":12_5" function="internal">
        <lane id=":12_5_0" index="0" disallow="pedestrian tram rail_urban rail rail_electric rail_fast ship" speed="9.61" length="7.77" width="3.75" shape="687.81,-254.51 682.17,-255.32 680.39,-256.39"/>
    </edge>
    <edge id=":12_13" function="internal">
        <lane id=":12_13_0" index="0" disallow="pedestrian tram rail_urban rail rail_electric rail_fast ship" speed="9.61" length="12.99" width="3.75" shape="680.39,-256.39 678.15,-257.73 675.74,-261.76 674.93,-267.39"/>
    </edge>
    <edge id=":12_6" function="internal">
        <lane id=":12_6_0" index="0" disallow="pedestrian tram rail_urban rail rail_electric rail_fast ship" speed="8.18" length="14.72" width="3.75" shape="678.68,-267.39 679.25,-263.40 680.96,-260.55 683.81,-258.83 687.81,-258.26"/>
    </edge>
    <edge id=":12_7" function="internal">
        <lane id=":12_7_0" index="0" disallow="pedestrian tram rail_urban rail rail_electric rail_fast ship" speed="13.89" length="22.00" width="3.75" shape="678.68,-267.39 678.68,-245.39"/>
    </edge>
    <edge id=":12_8" function="internal">
        <lane id=":12_8_0" index="0" disallow="pedestrian tram rail_urban rail rail_electric rail_fast ship" speed="9.61" length="7.77" width="3.75" shape="678.68,-267.39 677.88,-261.76 676.81,-259.97"/>
    </edge>
    <edge id=":12_14" function="internal">
        <lane id=":12_14_0" index="0" disallow="pedestrian tram rail_urban rail rail_electric rail_fast ship" speed="9.61" length="12.99" width="3.75" shape="676.81,-259.97 675.46,-257.73 671.44,-255.32 665.81,-254.51"/>
    </edge>
    <edge id=":12_9" function="internal">
        <lane id=":12_9_0" index="0" disallow="pedestrian tram rail_urban rail rail_electric rail_fast ship" speed="8.18" length="14.72" width="3.75" shape="665.81,-258.26 669.80,-258.83 672.65,-260.55 674.36,-263.40 674.93,-267.39"/>
    </edge>
    <edge id=":12_10" function="internal">
        <lane id=":12_10_0" index="0" disallow="pedestrian tram rail_urban rail rail_electric rail_fast ship" speed="13.89" length="22.00" width="3.75" shape="665.81,-258.26 687.81,-258.26"/>
    </edge>
    <edge id=":12_11" function="internal">
        <lane id=":12_11_0" index="0" disallow="pedestrian tram rail_urban rail rail_electric rail_fast ship" speed="9.61" length="7.77" width="3.75" shape="665.81,-258.26 671.44,-257.46 673.22,-256.39"/>
    </edge>
    <edge id=":12_15" function="internal">
        <lane id=":12_15_0" index="0" disallow="pedestrian tram rail_urban rail rail_electric rail_fast ship" speed="9.61" length="12.99" width="3.75" shape="673.22,-256.39 675.46,-255.05 677.88,-251.02 678.68,-245.39"/>
    </edge>
    <edge id=":148.138_0" function="internal">
        <lane id=":148.138_0_0" index="0" disallow="pedestrian tram rail_urban rail rail_electric rail_fast ship" speed="13.89" length="0.10" width="3.75" shape="556.81,1015.49 556.81,1015.49"/>
    </edge>
    <edge id=":148.138_1" function="internal">
        <lane id=":148.138_1_0" index="0" disallow="pedestrian tram rail_urban rail rail_electric rail_fast ship" speed="13.89" length="0.10" width="3.75" shape="556.81,1011.74 556.81,1011.74"/>
    </edge>
    <edge id=":149.133_0" function="internal">
        <lane id=":149.133_0_0" index="0" disallow="pedestrian tram rail_urban rail rail_electric rail_fast ship" speed="13.89" length="0.10" width="3.75" shape="674.93,893.61 674.93,893.61"/>
    </edge>
    <edge id=":149.133_1" function="internal">
        <lane id=":149.133_1_0" index="0" disallow="pedestrian tram rail_urban rail rail_electric rail_fast ship" speed="13.89" length="0.10" width="3.75" shape="678.68,893.61 678.68,893.61"/>
    </edge>
    <edge id=":150.148_0" function="internal">
        <lane id=":150.148_0_0" index="0" disallow="pedestrian tram rail_urban rail rail_electric rail_fast ship" speed="13.89" length="0.10" width="3.75" shape="286.81,1015.49 286.81,1015.49"/>
    </edge>
    <edge id=":150.148_1" function="internal">
        <lane id=":150.148_1_0" index="0" disallow="pedestrian tram rail_urban rail rail_electric rail_fast ship" speed="13.89" length="0.10" width="3.75" shape="286.81,1011.74 286.81,1011.74"/>
    </edge>
    <edge id=":151.132_0" function="internal">
        <lane id=":151.132_0_0" index="0" disallow="pedestrian tram rail_urban rail rail_electric rail_fast ship" speed="13.89" length="3.00" width="3.75" shape="674.93,1133.61 674.93,1130.61"/>
    </edge>
    <edge id=":151.132_1" function="internal">
        <lane id=":151.132_1_0" index="0" disallow="pedestrian tram rail_urban rail rail_electric rail_fast ship" speed="13.89" length="3.00" width="3.75" shape="678.68,1130.61 678.68,1133.61"/>
    </edge>
    <edge id=":153.151_0" function="internal">
        <lane id=":153.151_0_0" index="0" disallow="pedestrian tram rail_urban rail rail_electric rail_fast ship" speed="13.89" length="0.10" width="3.75" shape="826.81,1285.49 826.81,1285.49"/>
    </edge>
    <edge id=":153.151_1" function="internal">
        <lane id=":153.151_1_0" index="0" disallow="pedestrian tram rail_urban rail rail_electric rail_fast ship" speed="13.89" length="0.10" width="3.75" shape="826.81,1281.74 826.81,1281.74"/>
    </edge>
    <edge id=":153.152_0" function="internal">
        <lane id=":153.152_0_0" index="0" disallow="pedestrian tram rail_urban rail rail_electric rail_fast ship" speed="13.89" length="0.10" width="3.75" shape="1926.81,1285.49 1926.81,1285.49"/>
    </edge>
    <edge id=":153.152_1" function="internal">
        <lane id=":153.152_1_0" index="0" disallow="pedestrian tram rail_urban rail rail_electric rail_fast ship" speed="13.89" length="0.10" width="3.75" shape="1926.81,1281.74 1926.81,1281.74"/>
    </edge>
    <edge id=":154.152_0" function="internal">
        <lane id=":154.152_0_0" index="0" disallow="pedestrian tram rail_urban rail rail_electric rail_fast ship" speed="13.89" length="0.10" width="3.75" shape="2074.93,1133.61 2074.93,1133.61"/>
    </edge>
    <edge id=":154.152_1" function="internal">
        <lane id=":154.152_1_0" index="0" disallow="pedestrian tram rail_urban rail rail_electric rail_fast ship" speed="13.89" length="0.10" width="3.75" shape="2078.68,1133.61 2078.68,1133.61"/>
    </edge>
    <edge id=":157.154_0" function="internal">
        <lane id=":157.154_0_0" index="0" disallow="pedestrian tram rail_urban rail rail_electric rail_fast ship" speed="13.89" length="0.10" width="3.75" shape="2074.93,583.61 2074.93,583.61"/>
    </edge>
    <edge id=":157.154_1" function="internal">
        <lane id=":157.154_1_0" index="0" disallow="pedestrian tram rail_urban rail rail_electric rail_fast ship" speed="13.89" length="0.10" width="3.75" shape="2078.68,583.61 2078.68,583.61"/>
    </edge>
    <edge id=":16_0" function="internal">
        <lane id=":16_0_0" index="0" disallow="pedestrian tram rail_urban rail rail_electric rail_fast ship" speed="8.18" length="14.72" width="3.75" shape="674.93,1024.61 674.36,1020.62 672.65,1017.77 669.80,1016.06 665.81,1015.49"/>
    </edge>
    <edge id=":16_1" function="internal">
        <lane id=":16_1_0" index="0" disallow="pedestrian tram rail_urban rail rail_electric rail_fast ship" speed="13.89" length="22.00" width="3.75" shape="674.93,1024.61 674.93,1002.61"/>
    </edge>
    <edge id=":16_2" function="internal">
        <lane id=":16_2_0" index="0" disallow="pedestrian tram rail_urban rail rail_electric rail_fast ship" speed="9.61" length="7.77" width="3.75" shape="674.93,1024.61 675.74,1018.98 676.81,1017.19"/>
    </edge>
    <edge id=":16_12" function="internal">
        <lane id=":16_12_0" index="0" disallow="pedestrian tram rail_urban rail rail_electric rail_fast ship" speed="9.61" length="12.99" width="3.75" shape="676.81,1017.19 678.15,1014.95 682.17,1012.54 687.81,1011.74"/>
    </edge>
    <edge id=":16_3" function="internal">
        <lane id=":16_3_0" index="0" disallow="pedestrian tram rail_urban rail rail_electric rail_fast ship" speed="8.18" length="14.72" width="3.75" shape="687.81,1015.49 683.81,1016.06 680.96,1017.77 679.25,1020.62 678.68,1024.61"/>
    </edge>
    <edge id=":16_4" function="internal">
        <lane id=":16_4_0" index="0" disallow="pedestrian tram rail_urban rail rail_electric rail_fast ship" speed="13.89" length="22.00" width="3.75" shape="687.81,1015.49 665.81,1015.49"/>
    </edge>
    <edge id=":16_5" function="internal">
        <lane id=":16_5_0" index="0" disallow="pedestrian tram rail_urban rail rail_electric rail_fast ship" speed="9.61" length="7.77" width="3.75" shape="687.81,1015.49 682.17,1014.68 680.39,1013.61"/>
    </edge>
    <edge id=":16_13" function="internal">
        <lane id=":16_13_0" index="0" disallow="pedestrian tram rail_urban rail rail_electric rail_fast ship" speed="9.61" length="12.99" width="3.75" shape="680.39,1013.61 678.15,1012.27 675.74,1008.24 674.93,1002.61"/>
    </edge>
    <edge id=":16_6" function="internal">
        <lane id=":16_6_0" index="0" disallow="pedestrian tram rail_urban rail rail_electric rail_fast ship" speed="8.18" length="14.72" width="3.75" shape="678.68,1002.61 679.25,1006.60 680.96,1009.45 683.81,1011.17 687.81,1011.74"/>
    </edge>
    <edge id=":16_7" function="internal">
        <lane id=":16_7_0" index="0" disallow="pedestrian tram rail_urban rail rail_electric rail_fast ship" speed="13.89" length="22.00" width="3.75" shape="678.68,1002.61 678.68,1024.61"/>
    </edge>
    <edge id=":16_8" function="internal">
        <lane id=":16_8_0" index="0" disallow="pedestrian tram rail_urban rail rail_electric rail_fast ship" speed="9.61" length="7.77" width="3.75" shape="678.68,1002.61 677.88,1008.24 676.81,1010.03"/>
    </edge>
    <edge id=":16_14" function="internal">
        <lane id=":16_14_0" index="0" disallow="pedestrian tram rail_urban rail rail_electric rail_fast ship" speed="9.61" length="12.99" width="3.75" shape="676.81,1010.03 675.46,1012.27 671.44,1014.68 665.81,1015.49"/>
    </edge>
    <edge id=":16_9" function="internal">
        <lane id=":16_9_0" index="0" disallow="pedestrian tram rail_urban rail rail_electric rail_fast ship" speed="8.18" length="14.72" width="3.75" shape="665.81,1011.74 669.80,1011.17 672.65,1009.45 674.36,1006.60 674.93,1002.61"/>
    </edge>
    <edge id=":16_10" function="internal">
        <lane id=":16_10_0" index="0" disallow="pedestrian tram rail_urban rail rail_electric rail_fast ship" speed="13.89" length="22.00" width="3.75" shape="665.81,1011.74 687.81,1011.74"/>
    </edge>
    <edge id=":16_11" function="internal">
        <lane id=":16_11_0" index="0" disallow="pedestrian tram rail_urban rail rail_electric rail_fast ship" speed="9.61" length="7.77" width="3.75" shape="665.81,1011.74 671.44,1012.54 673.22,1013.61"/>
    </edge>
    <edge id=":16_15" function="internal">
        <lane id=":16_15_0" index="0" disallow="pedestrian tram rail_urban rail rail_electric rail_fast ship" speed="9.61" length="12.99" width="3.75" shape="673.22,1013.61 675.46,1014.95 677.88,1018.98 678.68,1024.61"/>
    </edge>
    <edge id=":162.end_0" function="internal">
        <lane id=":162.end_0_0" index="0" disallow="pedestrian tram rail_urban rail rail_electric rail_fast ship" speed="3.95" length="5.48" width="3.75" shape="2196.81,461.74 2198.21,462.67 2198.68,463.61 2198.21,464.55 2196.81,465.49"/>
    </edge>
    <edge id=":173.end_0" function="internal">
        <lane id=":173.end_0_0" index="0" disallow="pedestrian tram rail_urban rail rail_electric rail_fast ship" speed="3.95" length="5.48" width="3.75" shape="1716.81,465.49 1715.40,464.55 1714.93,463.61 1715.40,462.67 1716.81,461.74"/>
    </edge>
    <edge id=":174.169_0" function="internal">
        <lane id=":174.169_0_0" index="0" disallow="pedestrian tram rail_urban rail rail_electric rail_fast ship" speed="13.89" length="0.10" width="3.75" shape="1956.81,465.49 1956.81,465.49"/>
    </edge>
    <edge id=":174.169_1" function="internal">
        <lane id=":174.169_1_0" index="0" disallow="pedestrian tram rail_urban rail rail_electric rail_fast ship" speed="13.89" length="0.10" width="3.75" shape="1956.81,461.74 1956.81,461.74"/>
    </edge>
    <edge id=":18_0" function="internal">
        <lane id=":18_0_0" index="0" disallow="pedestrian tram rail_urban rail rail_electric rail_fast ship" speed="8.18" length="14.72" width="3.75" shape="2074.93,474.61 2074.36,470.62 2072.65,467.77 2069.80,466.06 2065.81,465.49"/>
    </edge>
    <edge id=":18_1" function="internal">
        <lane id=":18_1_0" index="0" disallow="pedestrian tram rail_urban rail rail_electric rail_fast ship" speed="13.89" length="22.00" width="3.75" shape="2074.93,474.61 2074.93,452.61"/>
    </edge>
    <edge id=":18_2" function="internal">
        <lane id=":18_2_0" index="0" disallow="pedestrian tram rail_urban rail rail_electric rail_fast ship" speed="9.61" length="7.77" width="3.75" shape="2074.93,474.61 2075.74,468.98 2076.81,467.19"/>
    </edge>
    <edge id=":18_12" function="internal">
        <lane id=":18_12_0" index="0" disallow="pedestrian tram rail_urban rail rail_electric rail_fast ship" speed="9.61" length="12.99" width="3.75" shape="2076.81,467.19 2078.15,464.95 2082.17,462.54 2087.81,461.74"/>
    </edge>
    <edge id=":18_3" function="internal">
        <lane id=":18_3_0" index="0" disallow="pedestrian tram rail_urban rail rail_electric rail_fast ship" speed="8.18" length="14.72" width="3.75" shape="2087.81,465.49 2083.81,466.06 2080.96,467.77 2079.25,470.62 2078.68,474.61"/>
    </edge>
    <edge id=":18_4" function="internal">
        <lane id=":18_4_0" index="0" disallow="pedestrian tram rail_urban rail rail_electric rail_fast ship" speed="13.89" length="22.00" width="3.75" shape="2087.81,465.49 2065.81,465.49"/>
    </edge>
    <edge id=":18_5" function="internal">
        <lane id=":18_5_0" index="0" disallow="pedestrian tram rail_urban rail rail_electric rail_fast ship" speed="9.61" length="7.77" width="3.75" shape="2087.81,465.49 2082.17,464.68 2080.39,463.61"/>
    </edge>
    <edge id=":18_13" function="internal">
        <lane id=":18_13_0" index="0" disallow="pedestrian tram rail_urban rail rail_electric rail_fast ship" speed="9.61" length="12.99" width="3.75" shape="2080.39,463.61 2078.15,462.27 2075.74,458.24 2074.93,452.61"/>
    </edge>
    <edge id=":18_6" function="internal">
        <lane id=":18_6_0" index="0" disallow="pedestrian tram rail_urban rail rail_electric rail_fast ship" speed="8.18" length="14.72" width="3.75" shape="2078.68,452.61 2079.25,456.60 2080.96,459.45 2083.81,461.17 2087.81,461.74"/>
    </edge>
    <edge id=":18_7" function="internal">
        <lane id=":18_7_0" index="0" disallow="pedestrian tram rail_urban rail rail_electric rail_fast ship" speed="13.89" length="22.00" width="3.75" shape="2078.68,452.61 2078.68,474.61"/>
    </edge>
    <edge id=":18_8" function="internal">
        <lane id=":18_8_0" index="0" disallow="pedestrian tram rail_urban rail rail_electric rail_fast ship" speed="9.61" length="7.77" width="3.75" shape="2078.68,452.61 2077.88,458.24 2076.81,460.03"/>
    </edge>
    <edge id=":18_14" function="internal">
        <lane id=":18_14_0" index="0" disallow="pedestrian tram rail_urban rail rail_electric rail_fast ship" speed="9.61" length="12.99" width="3.75" shape="2076.81,460.03 2075.46,462.27 2071.44,464.68 2065.81,465.49"/>
    </edge>
    <edge id=":18_9" function="internal">
        <lane id=":18_9_0" index="0" disallow="pedestrian tram rail_urban rail rail_electric rail_fast ship" speed="8.18" length="14.72" width="3.75" shape="2065.81,461.74 2069.80,461.17 2072.65,459.45 2074.36,456.60 2074.93,452.61"/>
    </edge>
    <edge id=":18_10" function="internal">
        <lane id=":18_10_0" index="0" disallow="pedestrian tram rail_urban rail rail_electric rail_fast ship" speed="13.89" length="22.00" width="3.75" shape="2065.81,461.74 2087.81,461.74"/>
    </edge>
    <edge id=":18_11" function="internal">
        <lane id=":18_11_0" index="0" disallow="pedestrian tram rail_urban rail rail_electric rail_fast ship" speed="9.61" length="7.77" width="3.75" shape="2065.81,461.74 2071.44,462.54 2073.22,463.61"/>
    </edge>
    <edge id=":18_15" function="internal">
        <lane id=":18_15_0" index="0" disallow="pedestrian tram rail_urban rail rail_electric rail_fast ship" speed="9.61" length="12.99" width="3.75" shape="2073.22,463.61 2075.46,464.95 2077.88,468.98 2078.68,474.61"/>
    </edge>
    <edge id=":189.186_0" function="internal">
        <lane id=":189.186_0_0" index="0" disallow="pedestrian tram rail_urban rail rail_electric rail_fast ship" speed="13.89" length="0.10" width="3.75" shape="1834.93,583.61 1834.93,583.61"/>
    </edge>
    <edge id=":189.186_1" function="internal">
        <lane id=":189.186_1_0" index="0" disallow="pedestrian tram rail_urban rail rail_electric rail_fast ship" speed="13.89" length="0.10" width="3.75" shape="1838.68,583.61 1838.68,583.61"/>
    </edge>
    <edge id=":2_0" function="internal">
        <lane id=":2_0_0" index="0" disallow="pedestrian tram rail_urban rail rail_electric rail_fast ship" speed="8.18" length="14.72" width="3.75" shape="134.93,174.61 134.36,170.62 132.65,167.77 129.80,166.06 125.81,165.49"/>
    </edge>
    <edge id=":2_1" function="internal">
        <lane id=":2_1_0" index="0" disallow="pedestrian tram rail_urban rail rail_electric rail_fast ship" speed="13.89" length="22.00" width="3.75" shape="134.93,174.61 134.93,152.61"/>
    </edge>
    <edge id=":2_2" function="internal">
        <lane id=":2_2_0" index="0" disallow="pedestrian tram rail_urban rail rail_electric rail_fast ship" speed="9.61" length="7.77" width="3.75" shape="134.93,174.61 135.74,168.98 136.81,167.19"/>
    </edge>
    <edge id=":2_12" function="internal">
        <lane id=":2_12_0" index="0" disallow="pedestrian tram rail_urban rail rail_electric rail_fast ship" speed="9.61" length="12.99" width="3.75" shape="136.81,167.19 138.15,164.95 142.17,162.54 147.81,161.74"/>
    </edge>
    <edge id=":2_3" function="internal">
        <lane id=":2_3_0" index="0" disallow="pedestrian tram rail_urban rail rail_electric rail_fast ship" speed="8.18" length="14.72" width="3.75" shape="147.81,165.49 143.81,166.06 140.96,167.77 139.25,170.62 138.68,174.61"/>
    </edge>
    <edge id=":2_4" function="internal">
        <lane id=":2_4_0" index="0" disallow="pedestrian tram rail_urban rail rail_electric rail_fast ship" speed="13.89" length="22.00" width="3.75" shape="147.81,165.49 125.81,165.49"/>
    </edge>
    <edge id=":2_5" function="internal">
        <lane id=":2_5_0" index="0" disallow="pedestrian tram rail_urban rail rail_electric rail_fast ship" speed="9.61" length="7.77" width="3.75" shape="147.81,165.49 142.17,164.68 140.39,163.61"/>
    </edge>
    <edge id=":2_13" function="internal">
        <lane id=":2_13_0" index="0" disallow="pedestrian tram rail_urban rail rail_electric rail_fast ship" speed="9.61" length="12.99" width="3.75" shape="140.39,163.61 138.15,162.27 135.74,158.24 134.93,152.61"/>
    </edge>
    <edge id=":2_6" function="internal">