<?xml version="1.0" encoding="UTF-8"?>
<!--
********************************************************************************
* Copyright (C) 2017-2020 German Aerospace Center (DLR). 
* Eclipse ADORe, Automated Driving Open Research https://eclipse.org/adore
*
* This program and the accompanying materials are made available under the 
* terms of the Eclipse Public License 2.0 which is available at
* http://www.eclipse.org/legal/epl-2.0.
*
* SPDX-License-Identifier: EPL-2.0 
*
* Contributors: 
*   Stephan Lapoehn
********************************************************************************
-->

<!-- generated on Di 04 Feb 2020 15:59:39 CET by Eclipse SUMO netedit Version v1_4_0+0842-bd820f4cc7
<configuration xmlns:xsi="http://www.w3.org/2001/XMLSchema-instance" xsi:noNamespaceSchemaLocation="http://sumo.dlr.de/xsd/netconvertConfiguration.xsd">

    <input>
        <sumo-net-file value="/home/stephan/catkin_ws/src/adore_if_ros_demos/tracks/basic_test_track.net.xml"/>
    </input>

    <output>
        <output-file value="/home/stephan/catkin_ws/src/adore_if_ros_demos/tracks/basic_test_track.net.xml"/>
    </output>

    <processing>
        <geometry.min-radius.fix.railways value="false"/>
        <geometry.max-grade.fix value="false"/>
        <offset.disable-normalization value="true"/>
        <lefthand value="false"/>
    </processing>

    <junctions>
        <no-turnarounds value="true"/>
        <junctions.corner-detail value="5"/>
        <junctions.limit-turn-speed value="5.5"/>
        <rectangular-lane-cut value="true"/>
    </junctions>

    <pedestrian>
        <walkingareas value="false"/>
    </pedestrian>

    <netedit>
        <route-files value="/home/stephan/catkin_ws/src/adore_if_ros_demos/tracks/basic_test_track3.rou.xml"/>
    </netedit>

    <report>
        <aggregate-warnings value="5"/>
    </report>

</configuration>
-->

<routes xmlns:xsi="http://www.w3.org/2001/XMLSchema-instance" xsi:noNamespaceSchemaLocation="http://sumo.dlr.de/xsd/routes_file.xsd">
    <flow id="flow_0" begin="0.00" from="151.0.00" to="-149.0.00" via="-91.0.00 -169.0.00 145.0.00 -133.0.00" end="3600.00" number="500"/>
</routes>
