<?xml version="1.0" encoding="UTF-8"?>
<!--
********************************************************************************
* Copyright (C) 2017-2020 German Aerospace Center (DLR). 
* Eclipse ADORe, Automated Driving Open Research https://eclipse.org/adore
*
* This program and the accompanying materials are made available under the 
* terms of the Eclipse Public License 2.0 which is available at
* http://www.eclipse.org/legal/epl-2.0.
*
* SPDX-License-Identifier: EPL-2.0 
*
* Contributors: 
*   Daniel Heß
********************************************************************************
-->

<!-- generated on Mon Dec  9 10:29:01 2019 by Eclipse SUMO netconvert Version v1_3_1+1172-e7a49884a7
<configuration xmlns:xsi="http://www.w3.org/2001/XMLSchema-instance" xsi:noNamespaceSchemaLocation="http://sumo.dlr.de/xsd/netconvertConfiguration.xsd">

    <input>
        <opendrive-files value="../tracks/circle50m.xodr"/>
    </input>

    <output>
        <output-file value="../tracks/circle50m.net.xml"/>
    </output>

    <processing>
        <geometry.max-grade.fix value="false"/>
        <offset.disable-normalization value="true"/>
    </processing>

    <tls_building>
        <tls.left-green.time value="0"/>
    </tls_building>

    <junctions>
        <rectangular-lane-cut value="true"/>
    </junctions>

</configuration>
-->

<net version="1.3" junctionCornerDetail="5" rectangularLaneCut="true" limitTurnSpeed="5.50" xmlns:xsi="http://www.w3.org/2001/XMLSchema-instance" xsi:noNamespaceSchemaLocation="http://sumo.dlr.de/xsd/net_file.xsd">

    <location netOffset="0.00,0.00" convBoundary="-50.00,-50.00,50.00,49.99" origBoundary="-50.00,-50.00,50.00,49.99" projParameter="!"/>

    <type id="bidirectional" priority="1" speed="1.39" disallow="pedestrian tram rail_urban rail rail_electric rail_fast ship" width="3.65"/>
    <type id="border" priority="0" speed="1.39" disallow="all" discard="1" width="0.10"/>
    <type id="driving" priority="1" speed="13.89" disallow="pedestrian tram rail_urban rail rail_electric rail_fast ship" width="3.65"/>
    <type id="entry" priority="1" speed="22.22" disallow="pedestrian tram rail_urban rail rail_electric rail_fast ship" width="3.65"/>
    <type id="exit" priority="1" speed="22.22" disallow="pedestrian tram rail_urban rail rail_electric rail_fast ship" width="3.65"/>
    <type id="median" priority="0" speed="1.39" disallow="all" discard="1" width="0.10"/>
    <type id="mwyEntry" priority="1" speed="22.22" allow="private emergency authority army vip passenger hov taxi bus coach delivery truck trailer motorcycle evehicle custom1 custom2" width="3.65"/>
    <type id="mwyExit" priority="1" speed="22.22" allow="private emergency authority army vip passenger hov taxi bus coach delivery truck trailer motorcycle evehicle custom1 custom2" width="3.65"/>
    <type id="none" priority="0" speed="1.39" disallow="all" discard="1" width="1.00"/>
    <type id="offRamp" priority="1" speed="22.22" allow="private emergency authority army vip passenger hov taxi bus coach delivery truck trailer motorcycle evehicle custom1 custom2" width="3.65"/>
    <type id="onRamp" priority="1" speed="22.22" allow="private emergency authority army vip passenger hov taxi bus coach delivery truck trailer motorcycle evehicle custom1 custom2" width="3.65"/>
    <type id="parking" priority="1" speed="1.39" disallow="pedestrian tram rail_urban rail rail_electric rail_fast ship" width="2.50"/>
    <type id="rail" priority="3" speed="33.33" allow="rail_urban rail rail_electric rail_fast" width="3.65"/>
    <type id="restricted" priority="0" speed="13.89" disallow="all" width="3.65"/>
    <type id="roadWorks" priority="0" speed="1.39" allow="authority" width="3.65"/>
    <type id="shoulder" priority="0" speed="1.39" disallow="all" discard="1" width="1.00"/>
    <type id="special1" priority="1" speed="22.22" allow="custom1" discard="1" width="3.65"/>
    <type id="special2" priority="1" speed="22.22" allow="custom2" discard="1" width="3.65"/>
    <type id="special3" priority="1" speed="22.22" allow="custom1 custom2" discard="1" width="3.65"/>
    <type id="stop" priority="1" speed="13.89" disallow="pedestrian tram rail_urban rail rail_electric rail_fast ship" width="3.65"/>
    <type id="tram" priority="2" speed="13.89" allow="tram" width="3.65"/>

    <edge id=":1.1_0" function="internal">
        <lane id=":1.1_0_0" index="0" disallow="pedestrian tram rail_urban rail rail_electric rail_fast ship" speed="13.89" length="0.23" width="4.00" shape="-0.21,-52.00 0.02,-52.00"/>
    </edge>
    <edge id=":1.157.08_0" function="internal">
        <lane id=":1.157.08_0_0" index="0" disallow="pedestrian tram rail_urban rail rail_electric rail_fast ship" speed="13.89" length="0.30" width="4.00" shape="0.24,51.99 -0.07,51.99"/>
    </edge>

    <edge id="-1.0.00" from="1.1" to="1.157.08" priority="1" type="driving" shape="0.00,-50.00 2.00,-49.96 4.00,-49.84 5.99,-49.64 7.97,-49.36 9.93,-49.00 11.89,-48.57 13.82,-48.05 15.73,-47.46 17.61,-46.79 19.47,-46.05 21.30,-45.24 23.09,-44.35 24.84,-43.39 26.56,-42.36 28.23,-41.27 29.86,-40.10 31.44,-38.88 32.97,-37.59 34.45,-36.24 35.87,-34.84 37.23,-33.37 38.54,-31.86 39.78,-30.29 40.96,-28.68 42.07,-27.02 43.12,-25.31 44.10,-23.57 45.01,-21.78 45.84,-19.97 46.60,-18.12 47.29,-16.24 47.90,-14.34 48.44,-12.41 48.89,-10.46 49.27,-8.50 49.57,-6.52 49.79,-4.53 49.94,-2.54 50.00,-0.54 49.98,1.46 49.88,3.46 49.70,5.45 49.44,7.43 49.11,9.40 48.69,11.36 48.20,13.30 47.63,15.22 46.98,17.11 46.26,18.97 45.46,20.81 44.60,22.61 43.66,24.37 42.65,26.10 41.57,27.78 40.42,29.43 39.22,31.02 37.94,32.56 36.61,34.05 35.22,35.49 33.77,36.87 32.27,38.19 30.72,39.45 29.12,40.65 27.47,41.78 25.78,42.84 24.04,43.84 22.27,44.77 20.46,45.62 18.62,46.40 16.75,47.11 14.85,47.74 12.93,48.30 10.99,48.78 9.03,49.18 7.06,49.50 5.07,49.74 3.08,49.91 1.08,49.99 0.08,49.99">
        <lane id="-1.0.00_0" index="0" disallow="pedestrian tram rail_urban rail rail_electric rail_fast ship" speed="13.89" length="163.10" width="4.00" shape="0.02,-52.00 2.08,-51.96 4.16,-51.83 6.23,-51.63 8.28,-51.34 10.33,-50.96 12.36,-50.51 14.37,-49.97 16.36,-49.36 18.32,-48.67 20.25,-47.90 22.15,-47.05 24.01,-46.12 25.84,-45.13 27.62,-44.06 29.36,-42.92 31.05,-41.71 32.70,-40.43 34.29,-39.09 35.82,-37.69 37.30,-36.23 38.72,-34.71 40.08,-33.13 41.37,-31.50 42.60,-29.82 43.76,-28.10 44.85,-26.32 45.86,-24.51 46.81,-22.66 47.67,-20.77 48.47,-18.84 49.18,-16.89 49.82,-14.91 50.37,-12.91 50.85,-10.88 51.24,-8.84 51.56,-6.78 51.79,-4.71 51.93,-2.64 52.00,-0.56 51.98,1.52 51.88,3.60 51.69,5.67 51.42,7.73 51.07,9.78 50.64,11.81 50.13,13.83 49.53,15.82 48.86,17.79 48.11,19.73 47.28,21.64 46.38,23.51 45.40,25.35 44.35,27.14 43.23,28.90 42.04,30.60 40.78,32.26 39.46,33.86 38.08,35.41 36.63,36.91 35.12,38.34 33.56,39.72 31.95,41.03 30.28,42.27 28.57,43.45 26.81,44.56 25.00,45.59 23.16,46.56 21.28,47.45 19.36,48.26 17.42,49.00 15.45,49.65 13.45,50.23 11.43,50.73 9.39,51.14 7.34,51.48 5.27,51.73 3.20,51.90 1.14,51.99 0.24,51.99" type="driving"/>
    </edge>
    <edge id="-1.157.08" from="1.157.08" to="1.1" priority="1" type="driving" shape="0.08,49.99 -0.92,49.99 -2.92,49.91 -4.91,49.76 -6.90,49.52 -8.87,49.21 -10.83,48.81 -12.78,48.34 -14.70,47.79 -16.60,47.16 -18.47,46.46 -20.32,45.69 -22.13,44.84 -23.90,43.92 -25.64,42.93 -27.33,41.87 -28.99,40.74 -30.59,39.55 -32.15,38.29 -33.66,36.98 -35.11,35.60 -36.50,34.17 -37.84,32.68 -39.12,31.14 -40.33,29.55 -41.48,27.92 -42.56,26.24 -43.58,24.51 -44.52,22.75 -45.40,20.95 -46.20,19.12 -46.93,17.26 -47.58,15.37 -48.16,13.45 -48.66,11.52 -49.08,9.56 -49.42,7.59 -49.68,5.61 -49.87,3.62 -49.97,1.62 -50.00,-0.38 -49.94,-2.38 -49.81,-4.37 -49.59,-6.36 -49.30,-8.34 -48.93,-10.31 -48.48,-12.25 -47.95,-14.18 -47.34,-16.09 -46.66,-17.97 -45.90,-19.82 -45.07,-21.64 -44.17,-23.43 -43.20,-25.17 -42.16,-26.88 -41.05,-28.55 -39.88,-30.16 -38.64,-31.73 -37.34,-33.25 -35.98,-34.72 -34.56,-36.13 -33.09,-37.49 -31.56,-38.78 -29.99,-40.01 -28.36,-41.18 -26.69,-42.28 -24.98,-43.31 -23.23,-44.28 -21.44,-45.17 -19.62,-45.99 -17.76,-46.74 -15.88,-47.41 -13.97,-48.01 -12.04,-48.53 -10.09,-48.97 -8.12,-49.34 -6.14,-49.62 -4.15,-49.83 -2.16,-49.95 -0.16,-50.00">
        <lane id="-1.157.08_0" index="0" disallow="pedestrian tram rail_urban rail rail_electric rail_fast ship" speed="13.89" length="163.08" width="4.00" shape="-0.07,51.99 -0.97,51.99 -3.04,51.91 -5.11,51.75 -7.17,51.50 -9.23,51.17 -11.27,50.76 -13.29,50.27 -15.29,49.70 -17.26,49.05 -19.21,48.32 -21.13,47.51 -23.01,46.63 -24.86,45.67 -26.66,44.64 -28.43,43.54 -30.15,42.37 -31.82,41.13 -33.44,39.83 -35.00,38.46 -36.51,37.03 -37.96,35.54 -39.35,33.99 -40.68,32.39 -41.94,30.74 -43.14,29.03 -44.27,27.29 -45.32,25.49 -46.31,23.66 -47.21,21.79 -48.05,19.88 -48.80,17.95 -49.48,15.98 -50.08,13.99 -50.60,11.98 -51.04,9.94 -51.40,7.89 -51.67,5.83 -51.86,3.76 -51.97,1.68 -52.00,-0.40 -51.94,-2.47 -51.80,-4.55 -51.58,-6.62 -51.27,-8.68 -50.88,-10.72 -50.41,-12.74 -49.86,-14.75 -49.23,-16.73 -48.53,-18.69 -47.74,-20.61 -46.88,-22.51 -45.94,-24.36 -44.93,-26.18 -43.85,-27.96 -42.69,-29.69 -41.47,-31.37 -40.18,-33.00 -38.83,-34.58 -37.42,-36.11 -35.94,-37.58 -34.41,-38.98 -32.83,-40.33 -31.19,-41.61 -29.50,-42.82 -27.76,-43.97 -25.98,-45.04 -24.16,-46.05 -22.30,-46.98 -20.40,-47.83 -18.47,-48.61 -16.51,-49.31 -14.53,-49.93 -12.52,-50.47 -10.49,-50.93 -8.45,-51.31 -6.39,-51.61 -4.32,-51.82 -2.24,-51.95 -0.21,-52.00" type="driving"/>
    </edge>

    <junction id="1.1" type="priority" x="0.00" y="-50.00" incLanes="-1.157.08_0" intLanes=":1.1_0_0" shape="-0.02,-50.00 0.06,-54.00 -0.25,-54.00 -0.16,-50.00">
        <request index="0" response="0" foes="0" cont="0"/>
    </junction>
    <junction id="1.157.08" type="priority" x="-0.01" y="49.99" incLanes="-1.0.00_0" intLanes=":1.157.08_0_0" shape="0.24,53.99 0.23,49.99 -0.07,49.99 -0.07,53.99">
        <request index="0" response="0" foes="0" cont="0"/>
    </junction>

    <connection from="-1.0.00" to="-1.157.08" fromLane="0" toLane="0" via=":1.157.08_0_0" dir="s" state="M"/>
    <connection from="-1.157.08" to="-1.0.00" fromLane="0" toLane="0" via=":1.1_0_0" dir="s" state="M"/>

    <connection from=":1.1_0" to="-1.0.00" fromLane="0" toLane="0" dir="s" state="M"/>
    <connection from=":1.157.08_0" to="-1.157.08" fromLane="0" toLane="0" dir="s" state="M"/>

</net>
