<?xml version="1.0" encoding="UTF-8"?>


<configuration xmlns:xsi="http://www.w3.org/2001/XMLSchema-instance" xsi:noNamespaceSchemaLocation="http://sumo.dlr.de/xsd/sumoConfiguration.xsd">

    <input>
        <net-file value="tracks/circle50m.net.xml"/>
        <route-files value="tracks/circle50m.rou.xml"/>
        <additional-files value="tracks/circle50m.add.xml"/>
    </input>

</configuration>
